ELEMENTS
 H   C    O   N  
END

SPECIES
NC7H16   O2        N2        CO2       H2O  
CO       H2        OH        H2O2      HO2
H        O         CH3O      CH2O      HCO  
CH2      CH3       CH4       C2H2      C2H3 
C2H4     C2H5      C3H4      C3H5      C3H6 
C3H7     C7H15-2   C7H15O2   C7KET12   C5H11CO  
N         N2O       NO        NO2  IC8H18   C8H17     
C8H17OO   IC8KET21  C6H13CO 
C4H9 C2H6 CH2CHO  CH2CO   CH3O2   CH3O2H SOOT NOX
END
REACTIONS
! IC8 REACTIONS     IC8KET21 = OC8H15OOH
!---------------OCTANE REACTIONS----------------------------------------------
! #1
IC8H18+H=C8H17+H2                      4.380E+07  2.0   7760.0 
! #2
IC8H18+OH=C8H17+H2O                     3.471E+07  1.8   278.2 
! #3
IC8H18+HO2=C8H17+H2O2                   2.228E+14  0.0   18950.0
! #4
IC8H18+O2=C8H17+HO2                    2.219E+15  0.0   42904.0
! #5
C8H17+O2=C8H17OO                       1.053E+11  0.0       0.0 
! #6
C8H17OO+O2=IC8KET21+OH                  1.740E+16  0.0  21233.0
!
! ORIGINAL STEPS
!C8H17OO=C8H16OOH         4.540E+13    0.00      21400.0
!C8H16OOH+O2=C8H17O4      8.540E+12    0.00       00.0
!C8H17O4=IC8KET21+OH      1.604E+11    0.00      17000
!
! ALTERNATIVE OPTION
!C8H17OO=C8H16OOH        3.825E+13  0.0  16233.0 
!C8H16OOH+O2=>IC8KET21+OH 8.022E+13    0.00      10000
! #7
IC8KET21=CH2O+C6H13CO+OH                 1.784E+14  0.0   39100.0 
! #8
C6H13CO = C4H9 + C2H4 + CO               4.920E+16  0.0   40200.0  
! #9
C4H9  =  C3H6+CH3                        4.560E+13  0.0   36900.0
! #10
C8H17 = C3H7 + C2H4  + C3H6              2.161E+16  0.0   36600.0 
!6.164E+15  0.0   33600.0  TO MAKE A SHIFT OF LOWER T CURVE
! #11
!C8H17 = C2H5 + C3H5 + C3H7               1.409E+16  0.0   36600.0    
!C8H17 = C4H9 + C3H5 + CH3                1.409E+15  0.0   31600.0
!1.409E+15  0.0   3.46E+04
!------------------------------------------------------
IC8H18+C7H15-2<=>NC7H16+C8H17                 5.012E10   0.00     0.0
!IC8H18+C7H15-2<=>NC7H16+C8H17                 5.012E33  -7.00     0.0
!  REV /1.0E0  5.0  40000.0/
!------------------------------------------------------
!#1
 NC7H16 + H            = C7H15-2 + H2         4.380E+07  2.0   4760.0
!#2
 NC7H16 + OH           = C7H15-2 + H2O        1.355E+10  1.3    690.0
!4.850E+09  1.3   1690.0
!#3
 NC7H16 + HO2          = C7H15-2 + H2O2       3.300E+14  0.0   16950.0
!#4
 NC7H16 + O2           = C7H15-2 + HO2        1.250E+14  0.0   37904.0
!1.000E+15  0.0   37904.0
!#5
 C7H15-2 + O2          = C7H15O2              2.340E+12  0.0       0.0
!#6
 C7H15O2 + O2          = C7KET12 + OH         3.290E+14  0.0  18232.712! 4.5E14
! ORGINAL STEPS
! C7H15O2               = C7H14OOH             4.540E+11  0.00  22100.0
! C7H14OOH + O2         = C7H15O4              1.168E+12  0.00      0.0
! C7H15O4               = C7KET12 + OH         8.115E+10  0.00  14000.0
!
!#7
 C7KET12               = C5H11CO + CH2O + OH  6.005E+14  0.0   4.110E+4
!6.671E+14  0.0   4.110E+4
!#8
 C5H11CO               = C2H4  + C3H7 + CO    9.840E+15  0.0   4.02E+04
!#9
 C7H15-2               = C2H5 + C2H4  + C3H6  4.038E+15  0.0   3.46E+04
!14.09E+14  0.0   3.46E+04
!----------------------------------------------------------------------
 C3H7                  = C2H4 + CH3           9.600E+13  0.0   30950.0
 C3H7                  = C3H6 + H             1.250E+14  0.0   36900.0
 C3H6 + CH3            = C3H5 + CH4           9.000E+12  0.0    8480.0
 C3H5 + O2             = C3H4 + HO2           6.000E+11  0.0   10000.0
 C3H4 + OH             = C2H3 + CH2O          1.000E+12  0.0       0.0
 C3H4 + OH             = C2H4 + HCO           1.000E+12  0.0       0.0
 CH3   + HO2           = CH3O  + OH           5.000E+13  0.00      0. 
 CH3   + OH            = CH2   + H2O          7.500E+06  2.00   5000.
 CH2   + OH            = CH2O  + H            2.500E+13  0.00      0.
 CH2   + O2            = HCO   + OH           4.300E+10  0.00   -500.
 CH2   + O2            = CO2   + H2           6.900E+11  0.00    500.
 CH2   + O2            = CO    + H2O          2.000E+10  0.00  -1000.
 CH2   + O2            = CH2O  + O            5.000E+13  0.00   9000.
 CH2   + O2            = CO2   + H     + H    1.600E+12  0.00   1000.
 CH2   + O2            = CO    + OH    + H    8.600E+10  0.00   -500.
 CH3O  + CO            = CH3   + CO2          3.925E+13  0.00  11800.
! CO    + OH            = CO2   + H            8.987E+07  1.38  5232.877   ! OLDC7
 CO    + OH            = CO2   + H            1.264E+07  1.30   -758.     ! NEWC7
O+CO(+M)<=>CO2(+M)                       1.800E+10    .000    2385.00 !GRI MECH 3
   LOW/ 6.020E+14     .000    3000.00/
H2/2.00/ O2/6.00/ H2O/6.00/ CO/1.50/ CO2/3.50/
O2+CO<=>O+CO2                            2.500E+12   0.000   47800.00 !GRI MECH
HO2+CO<=>OH+CO2                          4.760E+13   0.000   23600.00 !GRI MECH 1.5E14
 O     + OH            = O2    + H            4.000E+14 -0.50      0. 
 H     + HO2           = OH    + OH           1.700E+14  0.0     875.
 OH    + OH            = O     + H2O          6.000E+08  1.30      0.
! H     + O2    + M     = HO2   + M            3.600E+17 -0.72      0.
!       H2O/21./  CO2/5.0/  H2/3.3/  CO/2.0/
 H+O2(+M) = HO2(+M) 1.475E+12 0.60  0.000E+00
 LOW/3.500E+16 -4.10E-01 -1.1160E+03 /
 TROE/5.0000E-01  1.0000E-30  1.0000E+30/
 H2/2/ H2O/12/ CO/1.9/ CO2/3.8/
!
! H2O2  + M             = OH    + OH    + M    1.000E+16  0.00  45500.
!       H2O/21./  CO2/5.0/  H2/3.3/  CO/2.0/
 OH+OH(+M) = H2O2(+M) 1.236E+14   -.37  0.000E+00
 LOW /3.041E+30 -4.63 2049./
 TROE /0.47 100. 2000. 1.0E+15/
 H2/2/ H2O/12/ CO/1.9/ CO2/3.8/
!
H2O2+H=HO2+H2                            1.98E+06    2.0      2435.0 !MARINOV 1995A
H2O2+H=OH+H2O                            3.07E+13    0.0      4217.0 !MARINOV 1995A
H2O2+O=OH+HO2                            9.55E+06    2.0      3970.0 !MARINOV 1995A
H2O2+OH=H2O+HO2                          2.40E+00    4.042   -2162.0 !MARINOV 1995A !
 H2    + OH            = H2O   + H            1.170E+09  1.30   3626.
 HO2   + HO2           = H2O2  + O2           3.000E+12  0.00      0.
 CH2O  + OH            = HCO   + H2O          5.563E+10  1.095 -76.517
 CH2O  + HO2           = HCO   + H2O2         3.000E+12  0.00   8000. 
 HCO   + O2            = HO2   + CO           3.300E+13 -0.40      0. 
 HCO   + M             = H     + CO    + M    1.591E+18  0.95  56712.329 
! CH3   + CH3O          = CH4   + CH2O         4.300E+14  0.00      0.
 CH3   + CH3O          = CH4   + CH2O         4.300E+13  0.00      0.
!
! ORIGINAL
! C2H4  + OH            = CH2O  + CH3          6.000E+13  0.0     960.
 C2H4  + OH            = CH2O  + CH3          12.00E+13  0.0     960.
 C2H4  + OH            = C2H3  + H2O          8.020E+13  0.00   5955.
 C2H3  + O2            = CH2O  + HCO          4.000E+12  0.00   -250.
 C2H3  + HCO           = C2H4  + CO           6.034E+13  0.0       0.
 C2H5  + O2            = C2H4  + HO2          2.000E+10  0.0   -2200.
 CH4   + O2            = CH3   + HO2          7.900E+13  0.00  56000.
 OH    + HO2           = H2O   + O2           7.50E+12   0.0       0.
 CH3   + O2            = CH2O  + OH           3.80E+11   0.0    9000.
 CH4   + H             = CH3   + H2           6.600E+08  1.60  10840.
 CH4   + OH            = CH3   + H2O          1.600E+06  2.10   2460.
 CH4   + O             = CH3   + OH           1.020E+09  1.50   8604.
 CH4   + HO2           = CH3   + H2O2         9.000E+11  0.00  18700.
 CH4   + CH2           = CH3   + CH3          4.000E+12  0.00   -570.
 C3H6                  = C2H3 + CH3           3.150E+15  0.0   85500.0
 CH2   + CH2           = C2H2  + H2           1.200E+13  0.0     800. !WITH C2H2
 CH2   + CH2           = C2H2  + H     + H    1.200E+14  0.0     800.
 C2H4  + M             = C2H2  + H2    + M    1.500E+15  0.00  55800.
 C2H2  + O2            = HCO   + HCO          4.000E+12  0.00  28000.
 C2H2  + O             = CH2   + CO           1.020E+07  2.00   1900.
 C2H2  + H     + M     = C2H3  + M            5.540E+12  0.00   2410.
 C2H3  + H             = C2H2  + H2           4.000E+13  0.00      0.
 C2H3  + OH            = C2H2  + H2O          3.000E+13  0.00      0.
 C2H3  + CH2           = C2H2  + CH3          3.000E+13  0.00      0.
 C2H3  + C2H3          = C2H2  + C2H4         1.450E+13  0.0       0.0
 C2H3  + O             = C2H2  + OH           1.000E+13  0.0       0.0
 C2H2  + OH            = CH3   + CO           4.830E-04  4.00  -2000.
 C2H3                  = C2H2  + H            4.600E+40 -8.80  46200.
N+NO<=>N2+O                              3.500E+13     .000     330.00 !NO MECH
N+O2<=>NO+O                              2.650E+12     .000    6400.00
N+OH<=>NO+H                              7.333E+13     .000    1120.00
N2O+O<=>N2+O2                            1.400E+12     .000   10810.00
N2O+O<=>2NO                              2.900E+13     .000   23150.00
N2O+H<=>N2+OH                            4.400E+14     .000   18880.00
N2O+OH<=>N2+HO2                          2.000E+12     .000   21060.00
N2O(+M)<=>N2+O(+M)                       1.300E+11     .000   59620.00
     LOW  /  6.200E+14     .000  56100.00/
H2/2.00/ H2O/6.00/ CH4/2.00/ CO/1.50/ CO2/2.00/
HO2+NO<=>NO2+OH                          2.110E+12     .000    -480.00
NO+O+M<=>NO2+M                           1.060E+20   -1.410        .00
H2/2.00/ H2O/6.00/ CH4/2.00/ CO/1.50/ CO2/2.00/
NO2+O<=>NO+O2                            3.900E+12     .000    -240.00
NO2+H<=>NO+OH                            1.320E+14     .000     360.00
!===================== ADDITION
! C5H11CO               = C2H5  + C3H6 + CO    3.204E+13  0.0   28300.0 !3.204E+13
! C3H7 + O2             = C3H6 + HO2           1.000E+12  0.0    4980.0! 38
! CH3+C2H4(+M)<=>C3H7(+M)                  2.550E+06    1.600   5700.00!279
!       LOW/ 3.00E+63  -14.6  18170./
!       TROE/ .1894  277.0  8748.0  7891.0 /
! H2/2.0/ H2O/6.0/ CH4/2.0/ CO/1.5/ CO2/2.0/ N2/0.7/
! O+C3H7<=>C2H5+CH2O                       9.640E+13     .000       .00!280
! H+C3H7<=>CH3+C2H5                        4.060E+06    2.190    890.00!282
! HO2+C3H7=>OH+C2H5+CH2O                   2.410E+13     .000       .00!286
! CH3+C3H7<=>2C2H5                         1.927E+13   -0.320       .00!287
! C3H7+CH3 <=> CH4+C3H6                    1.100E+13    0.000      0.0 !288 TS3
 C3H6 + H              = C3H5 + H2            5.000E+12  0.0    1500.0! 40
 C3H6 + O2             = C3H5 + HO2           4.000E+12  0.0   39900.0! 42
!
! ORIGINAL 2 STEPS
! CH2CHO                = CH2CO + H        3.094E+15      -0.26  50820.0 
! CH2CO(+M)             = CH2 + CO(+M)     3.000E+14       0.00  70980.0 
!         LOW / 3.600E+15 0.00  5.927E+04 /
!=> CH2CHO                = CH2 + CO + H     3.094E+15      -0.26  50820.0
!
! CH2CHO + O            => H + CH2 + CO2       1.500E+14  0.0       0.0
! CH2CHO + O2           => OH + CO + CH2O      1.810E+10  0.0       0.0
! CH2CHO + O2           => OH + 2HCO           2.350E+10  0.0       0.0
 CH2CHO + H            = CH3 + HCO            2.200E+13  0.0       0.0
! C3H5 + O2             => CH2CHO + CH2O       7.140E+15  -1.21 21049.95
! CH2CHO + CH2O         => C3H5 + O2           4.944E+16  -1.40 88619.98
! C3H5 + O2             => C2H2 + CH2O + OH    9.720E+29  -5.71 21450.05
!!
! C3H4 + HO2            => C2H4  + CO + OH     1.000E+12  0.00  14000.0
!!  DELAY
!! CH3O  + O2            = CH2O  + HO2          1.200E+11  0.00   2600. ! 73
!! DELAY
!! CH3O (+M)             = CH2O  + H (+M)       2.000E+13  0.00  27420.0! 74
!!     LOW /2.344E+25 -2.7  3.060E+04/
!! NO-DELAY  +++++++++++++++++
 CH2O  + O2            = HCO   + HO2          6.200E+13  0.00  39000. !139
 CH2O  + O             = HCO   + OH           4.100E+11  0.57   2760. !140  
 CH2O  + H             = HCO   + H2           2.190E+08  1.80   3000. !141
 CH2O  + M             = CO    + H2    + M    6.250E+15  0.00  69540. !144
 CH2O  + M             = HCO   + H     + M    3.300E+16  0.00  81000. !145
 HCO   + OH            = H2O   + CO           1.000E+14  0.00      0. !147
 HCO   + O             = OH    + CO           3.000E+13  0.00      0. !149
 HCO   + O             = H     + CO2          3.000E+13  0.00      0. !150
 HCO   + HO2           = CO2   + OH    + H    3.000E+13  0.00      0. !153
!! NO-DELAY ------------------------
! C2H3  + O2            = O     + CH2CHO       3.030E+11  0.29     11.0
!! CH3   + O2            = CH3O  + O            3.560E+13  0.00  30480. !GRI MECH
!=========================================================
! SOOT MODEL COMPLIMENTARY
!=========================================================
  C2H6+CH3  =  C2H5+CH4  1.510E-07  6.00  6.047E+03
               REV /  9.649E-10  6.56  1.022E+04 /
  C2H6+H  =  C2H5+H2  5.370E+02  3.50  5.200E+03
               REV /  9.720E+02  3.50  2.732E+04 /
  C2H6+OH  =  C2H5+H2O  5.125E+06  2.06  8.550E+02
               REV /  1.010E+07  2.06  2.298E+04 /
  C2H6+O  =  C2H5+OH  1.130E+14  0.00  7.850E+03
               REV /  2.080E+13  0.00  1.272E+04 /
 CH3+CH3(+M) = C2H6(+M) 7.371E+16  -1.17  6.358E+02
 LOW/9.088E+35 -5.246  1.705E+03/
 TROE/0.405 1120. 69.6 1.E+15/
  C2H6+O2  =  C2H5+HO2  4.000E+13  0.00  5.090E+04
               REV /  3.000E+11  0.00  0.000E+00 /
  C2H6+HO2  =  C2H5+H2O2  1.700E+13  0.00  2.046E+04
               REV /  1.069E+11  0.24  7.842E+03 /
  C2H6+C2H4  =  C2H5+C2H5  5.000E+11  0.00  6.000E+04
               REV /  5.000E+11  0.00  0.000E+00 /
  C2H6+M  =  C2H5+H+M  8.851E+20  -1.22  1.022E+05
               REV /  1.148E+13  0.34 -1.550E+03 /
  C2H6+CH2  =  C2H5+CH3  2.200E+13  0.00  8.670E+03
               REV /  2.665E+10  0.56  1.706E+04 /
  C2H6+CH3O2  =  C2H5+CH3O2H  1.700E+13  0.00  2.046E+04
               REV /  7.500E+11  0.00  1.280E+03 /
  C3H6+C2H5  =  C3H5+C2H6  1.000E+11  0.00  9.800E+03
               REV /  5.369E+05  1.33  1.644E+04 /
  C3H5+C2H5  =  C2H6+C3H4  4.000E+11  0.00  0.000E+00
               REV /  1.802E+12  0.05  4.033E+04 /
!===========================================
! ADDITION FOR MB MECH
!======================================================
! CH2CHO REACTIONS
!
C2H4+O                 = CH2CHO + H           3.390E+06  1.88    179.0
C2H3+O2                = CH2CHO + O           3.500E+14 -0.61   5260.0
CH2CHO + O2            = CH2O + CO + OH       2.000E+13  0.00  42000.0
!----------------------------------------
! CH3OCO REACTIONS
!----------------------------------------
!CO+CH3O=CH3OCO  1.500E+11  0.000  3000.0
!CO2+CH3=CH3OCO  1.500E+11  0.000  36730.0
!------------------------------------
! CH2CO
!------------------------------------
C2H2+OH = CH2CO+H 2.190E-04 4.50 -1.000E+03
CH2CO+H = CH3+CO 1.100E+13 0.00 3.400E+03
CH2CO+O = CH2+CO2 1.750E+12 0.00 1.350E+03
CH2CO(+M) = CH2+CO(+M) 3.000E+14 0.00 7.098E+04
         LOW / 3.600E+15 0.00  5.927E+04 /
C3H6+O = CH2CO+CH3+H 2.500E+07 1.76 7.600E+01
CH2CHO = CH2CO+H 3.094E+15 -0.26 5.082E+04
!-------------------------------------
! C2H5CHO
!-------------------------------------
!C2H5CHO = C2H5+HCO 9.850E+18 -0.73 8.171E+04
!
!------------------------------------
! CH3O2 REACTIONS
!------------------------------------
!CH3O2+M = CH3+O2+M 4.343E+27 -3.42 3.047E+04
CH3+O2+M = CH3O2+M 5.44E+25   -3.3        0.0
! ORIGINAL 5.44E+25   -3.3        0.0

CH3O2+CH3 = CH3O+CH3O 2.410E+12   0.0      0.   
! ORIGINAL 7.000E+12 0.00 -1.000E+03
!CH3O2+CH3O2 => O2+CH3O+CH3O 2.800E+11   0.0   -780.0  
! ORIGINAL 1.400E+16 -1.61 1.860E+03
!
 CH3O2 + O             = CH3O  + O2           3.610E+13   0.0      0. ! 82
 CH3O2 + H             = CH3O  + OH           9.640E+13   0.0      0. ! 83
!
 CH3O  + H             = CH3   + OH           1.000E+14  0.00      0. ! 95

CH3+O=CH2O+H                                  8.00E+13    0.0        0.0
CH3+O2=CH3O+O                                 2.00E+18   -1.6    29210.0
 REV /3.58E+18   -1.6    -1631.0/
CH3+H(+M) = CH4(+M) 2.138E+15  -0.40  0.000E+00
!          REV / 1.054E+21 -1.40 1.079E+05 /
           LOW / 3.310E+30 -4.00 2108. /
     TROE/0.0  1.E-15  1.E-15  40./
     H2/2/ H2O/5/ CO/2/ CO2/3/
!-----------------------------------
! CH3O2H REACTIONS
!----------------------
CH3O2H = CH3O+OH 6.310E+14 0.00 4.230E+04
!-------------------------
! CH3O2 TO CH3O2H CONVERSION REACTIONS
!-----------------------------
CH3O2+CH2O = CH3O2H+HCO 1.990E+12 0.00 1.167E+04
C2H4+CH3O2 = C2H3+CH3O2H 1.130E+13 0.00 3.043E+04
CH4+CH3O2 = CH3+CH3O2H 1.810E+11 0.00 1.848E+04
CH3O2+HO2 = CH3O2H+O2 1.750E+10 0.00 -3.275E+03
!-----------------------------------
!

END
